/*--------------------------------*- C++ -*----------------------------------*\
| =========                 |                                                 |
| \\      /  F ield         | OpenFOAM: The Open Source CFD Toolbox           |
|  \\    /   O peration     | Version:  v2206                                 |
|   \\  /    A nd           | Website:  www.openfoam.com                      |
|    \\/     M anipulation  |                                                 |
\*---------------------------------------------------------------------------*/
FoamFile
{
    version     2.0;
    format      ascii;
    class       volScalarField;
    object      T;
}
// * * * * * * * * * * * * * * * * * * * * * * * * * * * * * * * * * * * * * //

dimensions      [0 0 0 1 0 0 0];

internalField   uniform 0;

boundaryField
{
    top
    {
        type            fixedValue;
        value           uniform 1.0;
    }

    bottom
    {
        type            fixedGradient;
        gradient        uniform 5.0;
    }

    right
    {
        type            fixedGradient;
        gradient        uniform -2.0;
    }

    left
    {
        type            fixedValue;
        value           uniform 2.0;
    }

    frontAndBack
    {
        type            empty;
    }
}


// ************************************************************************* //
